LTspice 24.0.12 for Windows
Circuit: * D:\capstone\sensorinterfacing\NK\projects\lpf\lpf_transient_analysis.asc
Start Time: Wed Nov 27 23:39:29 2024
solver = Normal
Maximum thread count: 8
tnom = 27
temp = 27
method = modified trap
WARNING: Less than two connections to node nc_01.  This node is used by rfk.
Direct Newton iteration for .op point succeeded.
Total elapsed time: 0.428 seconds.

