LTspice 24.0.12 for Windows
Circuit: * D:\capstone\sensorinterfacing\NK\projects\lpf\lpf_transient.asc
Start Time: Wed Nov 27 13:56:06 2024
solver = Normal
Maximum thread count: 8
tnom = 27
temp = 27
method = modified trap
Direct Newton iteration for .op point succeeded.
Total elapsed time: 0.230 seconds.

